-------------------------------------------------------
          Amber 22 SANDER                              2022
          -------------------------------------------------------

  [-O]verwriting output

File Assignments:

 Here is the input file:

Density equilibration
&cntrl
  imin= 0,                       ! Run molecular dynamics.
  nstlim=15000,                  ! Number of MD-steps to be performed.
  dt=0.002,                      ! Time step (ps)
  irest=1,                       ! Restart the simulation and read coordinates and velocities from the restart file provided in -c
  ntx=5,                         ! Initial file contains coordinates and velocities.
  ntpr=500, ntwx=500, ntwr=500,  ! Output options
  cut=8.0,                       ! non-bond cut off
  temp0=298,                     ! Temperature
  ntt=3, gamma_ln=3.0,           ! Temperature scaling using Langevin dynamics with the collision frequency in gamma_ln (psâˆ’1)
  ntb=2,                         ! Periodic conditiond at constant pressure
  ntc=2, ntf=2,                  ! Constrain lengths of bonds having hydrogen atoms (SHAKE)
  ntp=1, taup=2.0,               ! Pressure scaling
  iwrap=1, ioutfm=1,             ! Output trajectory options
/

--------------------------------------------------------------------------------
   1.  RESOURCE   USE:
--------------------------------------------------------------------------------

 getting box info from netcdf restart file
 NATOM  =  102594 NTYPES =      25 NBONH =  100226 MBONA  =    2417
 NTHETH =    5236 MTHETA =    3284 NPHIH =   10790 MPHIA  =   10497
 NHPARM =       0 NPARM  =       0 NNB   =  156318 NRES   =   32946
 NBONA  =    2417 NTHETA =    3284 NPHIA =   10497 NUMBND =      78
 NUMANG =     170 NPTRA  =     209 NATYP =      46 NPHB   =       0
 IFBOX  =       1 NMXRS  =      34 IFCAP =       0 NEXTRA =       0
 NCOPY  =       0

     BOX TYPE: RECTILINEAR

--------------------------------------------------------------------------------
   2.  CONTROL  DATA  FOR  THE  RUN
--------------------------------------------------------------------------------

GWS

General flags:
     imin    =       0, nmropt  =       0

Nature and format of input:
     ntx     =       5, irest   =       1, ntrx    =       1

Nature and format of output:
     ntxo    =       2, ntpr    =     500, ntrx    =       1, ntwr    =     500
     iwrap   =       1, ntwx    =     500, ntwv    =       0, ntwe    =       0
     ioutfm  =       1, ntwprt  =       0, idecomp =       0, rbornstat=      0

Potential function:
     ntf     =       2, ntb     =       2, igb     =       0, nsnb    =      25
     ipol    =       0, gbsa    =       0, iesp    =       0
     dielc   =   1.00000, cut     =   8.00000, intdiel =   1.00000

Frozen or restrained atoms:
     ibelly  =       0, ntr     =       0

Molecular dynamics:
     nstlim  =     15000, nscm    =      1000, nrespa  =         1
     t       =   0.00000, dt      =   0.00200, vlimit  =  20.00000

Langevin dynamics temperature regulation:
     ig      =   71277
     temp0   = 298.00000, tempi   =   0.00000, gamma_ln=   3.00000

Pressure regulation:
     ntp     =       1
     pres0   =   1.00000, comp    =  44.60000, taup    =   2.00000

SHAKE:
     ntc     =       2, jfastw  =       0
     tol     =   0.00001

Ewald parameters:
     verbose =       0, ew_type =       0, nbflag  =       1, use_pme =       1
     vdwmeth =       1, eedmeth =       1, netfrc  =       1
     Box X =  106.253   Box Y =  105.957   Box Z =  106.341
     Alpha =   90.000   Beta  =   90.000   Gamma =   90.000
     NFFT1 =  108       NFFT2 =  108       NFFT3 =  108
     Cutoff=    8.000   Tol   =0.100E-04
     Ewald Coefficient =  0.34864
     Interpolation order =    4

--------------------------------------------------------------------------------
   3.  ATOMIC COORDINATES AND VELOCITIES
--------------------------------------------------------------------------------

GWS
 begin time read from input coords =    60.000 ps

 Number of triangulated 3-point waters found:    32637

     Sum of charges from parm topology file =  -0.00000016
     Forcing neutrality...

--------------------------------------------------------------------------------
   4.  RESULTS
 NSTEP =      500   TIME(PS) =      61.000  TEMP(K) =   297.93  PRESS =  -512.1
 Etot   =   -251931.8470  EKtot   =     61440.5374  EPtot      =   -313372.3844
 BOND   =      1611.3063  ANGLE   =      2490.9934  DIHED      =      3937.4744
 1-4 NB =      1091.6907  1-4 EEL =     12042.6342  VDWAALS    =     43383.0327
 EELEC  =   -377929.5161  EHBOND  =         0.0000  RESTRAINT  =         0.0000
 EKCMT  =     29097.4199  VIRIAL  =     42167.3910  VOLUME     =   1182044.9460
                                                    Density    =         0.8735
 Ewald error estimate:   0.3152E-04
 ------------------------------------------------------------------------------

      A V E R A G E S   O V E R   15000 S T E P S

 NSTEP =    15000   TIME(PS) =      90.000  TEMP(K) =   298.08  PRESS =  -164.2
 Etot   =   -255176.2307  EKtot   =     61471.3928  EPtot      =   -316647.6235
 BOND   =      1604.3671  ANGLE   =      2471.5692  DIHED      =      3859.5800
 1-4 NB =      1093.9549  1-4 EEL =     12059.7552  VDWAALS    =     44020.5147
 EELEC  =   -381757.3646  EHBOND  =         0.0000  RESTRAINT  =         0.0000
 EKCMT  =     29082.0689  VIRIAL  =     33099.7826  VOLUME     =   1111287.0516
                                                    Density    =         0.9299
 Ewald error estimate:   0.4048E-04
 ------------------------------------------------------------------------------

      R M S  F L U C T U A T I O N S

 NSTEP =    15000   TIME(PS) =      90.000  TEMP(K) =     0.98  PRESS =   140.7
 Etot   =      1192.2849  EKtot   =       202.2283  EPtot      =      1199.1478
 BOND   =        29.2839  ANGLE   =        37.7827  DIHED      =        20.2398
 1-4 NB =        13.9126  1-4 EEL =        37.0230  VDWAALS    =       311.5994
 EELEC  =      1417.1294  EHBOND  =         0.0000  RESTRAINT  =         0.0000
 EKCMT  =       132.7879  VIRIAL  =      3566.3199  VOLUME     =     31073.1252
                                                    Density    =         0.0254
 Ewald error estimate:   0.2796E-04
 ------------------------------------------------------------------------------
